*Heading
** Job name: Job500_13 Model name: LambdaTest_mod3
** Generated by: Abaqus/CAE 6.14-1
*Preprint, echo=NO, model=NO, history=NO, contact=NO
**
** PARTS
**
*Part, name=PART-1
*Node
      1,           0.,           0., 0.0549999997
      2, -0.0549999997,           0.,           0.
      3,           0., -0.0549999997,           0.
      4, 0.0549999997,           0.,           0.
      5,           0., 0.0549999997,           0.
      6,           0.,           0., -0.0549999997
      7,           0., -0.0549289994, 0.00278600003
      8,           0., -0.054717999, 0.00556399999
      9,           0.,    -0.054366, 0.00832900032
     10,           0., -0.0538740009, 0.0110710002
     11,           0., -0.0532439984, 0.0137860002
     12,           0., -0.0524780005, 0.0164650008
     13,           0., -0.0515759997, 0.0191019997
     14,           0., -0.0505429991, 0.0216899998
     15,           0., -0.0493789986, 0.0242219996
     16,           0., -0.0480890013, 0.0266919993
     17,           0., -0.0466750003, 0.0290929992
     18,           0., -0.0451419987, 0.0314199999
     19,           0., -0.0434929989, 0.0336659998
     20,           0., -0.0417319983, 0.0358249992
** ... 15427 like lines cut
*Element, type=S8R
   1,    20,    21,   390,   376,  5151,  5152,  5153,  5154
   2,    21,    22,   391,   390,  5155,  5156,  5157,  5152
   3,    22,    23,   392,   391,  5158,  5159,  5160,  5156
   4,    23,    24,   393,   392,  5161,  5162,  5163,  5159
   5,    24,    25,   394,   393,  5164,  5165,  5166,  5162
   6,    25,    26,   395,   394,  5167,  5168,  5169,  5165
   7,    26,    27,   396,   395,  5170,  5171,  5172,  5168
   8,    27,    28,   397,   396,  5173,  5174,  5175,  5171
   9,    28,    29,   398,   397,  5176,  5177,  5178,  5174
  10,    29,    30,   399,   398,  5179,  5180,  5181,  5177
  11,    30,    31,   400,   399,  5182,  5183,  5184,  5180
  12,    31,    32,   401,   400,  5185,  5186,  5187,  5183
  13,    32,    33,   402,   401,  5188,  5189,  5190,  5186
  14,    33,    34,   403,   402,  5191,  5192,  5193,  5189
  15,    34,    35,   404,   403,  5194,  5195,  5196,  5192
  16,    35,    36,   405,   404,  5197,  5198,  5199,  5195
  17,    36,     1,    37,   405,  5200,  5201,  5202,  5198
  18,   376,   390,   406,   375,  5153,  5203,  5204,  5205
  19,   390,   391,   407,   406,  5157,  5206,  5207,  5203
  20,   391,   392,   408,   407,  5160,  5208,  5209,  5206
** ... 5128 like lines cut
*Nset, nset=PART-1-REFPT_, internal
 15447,
*Nset, nset=SET-1, generate
     1,  15446,      1
*Elset, elset=SET-1, generate
    1,  5148,     1
*Orientation, name=Ori-1, system=SPHERICAL
          0.,           0.,           0.,           0.,          -1.,           0.
2, 0.
** Section: Section-1-SET-1
*Shell Section, elset=SET-1, material=MATERIAL-1, orientation=Ori-1
*End Part
**  
**
** ASSEMBLY
**
*Assembly, name=Assembly
**  
*Instance, name=PART-1-1, part=PART-1
*End Instance
**  
*Nset, nset=SET-4, instance=PART-1-1
 15447,
*Nset, nset=SET-5, instance=PART-1-1
 15447,
*Nset, nset=SET-6, instance=PART-1-1
     2,     3,     4,     5,    64,    65,    66,    67,    68,    69,    70,    71,    72,    73,    74,    75
    76,    77,    78,    79,    80,    81,    82,    83,    84,    85,    86,    87,    88,    89,    90,    91
    92,    93,   149,   150,   151,   152,   153,   154,   155,   156,   157,   158,   159,   160,   161,   162
   163,   164,   165,   166,   167,   168,   169,   170,   171,   172,   173,   174,   175,   176,   177,   178
   291,   292,   293,   294,   295,   296,   297,   298,   299,   300,   301,   302,   303,   304,   305,   306
   307,   308,   309,   310,   311,   312,   313,   314,   315,   316,   317,   318,   319,   320,   321,   322
   323,   324,   325,   326,   327,   328,   329,   330,   331,   332,   333,   334,   335,   336,   337,   338
   339,   340,   341,   342,   343,   344,   345,   346,  5698,  5726,  5754,  5782,  5810,  5838,  5866,  5894
  5922,  5950,  5978,  6006,  6034,  6062,  6090,  6118,  6146,  6148,  6151,  6154,  6157,  6160,  6163,  6166
  6169,  6172,  6175,  6178,  6181,  6184,  6187,  7088,  7114,  7140,  7166,  7192,  7218,  7244,  7270,  7296
  7322,  7348,  7374,  7400,  7426,  7452,  7478,  7480,  7483,  7486,  7489,  7492,  7495,  7498,  7501,  7504
  7507,  7510,  7513,  7516,  7519,  7522, 10527, 10531, 10534, 10537, 10540, 10543, 10546, 10549, 10552, 10555
 10558, 10561, 10564, 10567, 10570, 10573, 11451, 11481, 11511, 11541, 11571, 11601, 11631, 11661, 11691, 11721
 11751, 11781, 11797, 12240, 12268, 12296, 12324, 12352, 12380, 12408, 12436, 12464, 12492, 12520, 12548, 12576
 12604, 12632, 12660, 12662, 12665, 12668, 12671, 12674, 12677, 12680, 12683, 12686, 12689, 12692, 12695, 12698
 15447,
*Elset, elset=SET-6, instance=PART-1-1
  252,  266,  280,  294,  308,  322,  336,  350,  364,  378,  392,  406,  420,  434,  448,  462
  476,  477,  478,  479,  480,  481,  482,  483,  484,  485,  486,  487,  488,  489,  490,  925
  938,  951,  964,  977,  990, 1003, 1016, 1029, 1042, 1055, 1068, 1081, 1094, 1107, 1120, 1121
 1122, 1123, 1124, 1125, 1126, 1127, 1128, 1129, 1130, 1131, 1132, 1133, 1134, 1135, 1316, 1317
 1318, 1319, 1320, 1321, 1322, 1323, 1324, 1325, 1326, 1327, 1328, 1329, 1330, 1331, 1793, 1807
 1821, 1835, 1849, 1863, 1877, 1891, 1905, 1919, 1933, 1947, 1961, 1975, 1989, 1990, 1991, 1992
 1993, 1994, 1995, 1996, 1997, 1998, 1999, 2000, 2001, 2002, 2003, 2004, 2005, 2006, 2461, 2474
 2487, 2500, 2513, 2526, 2539, 2552, 2565, 2578, 2591, 2604, 2617, 2630, 2631, 2632, 2633, 2634
 2635, 2636, 2637, 2638, 2639, 2640, 2641, 2642, 2643, 2644, 2645, 2646, 3093, 3108, 3123, 3138
 3153, 3168, 3183, 3198, 3213, 3228, 3243, 3258, 3273, 3495, 3509, 3523, 3537, 3551, 3565, 3579
 3593, 3607, 3621, 3635, 3649, 3663, 3677, 3691, 3705, 3706, 3707, 3708, 3709, 3710, 3711, 3712
 3713, 3714, 3715, 3716, 3717, 3718, 4112, 4127, 4142, 4157, 4172, 4187, 4202, 4217, 4232, 4247
 4262, 4277, 4292, 4307, 4322, 4323, 4324, 4325, 4326, 4327, 4328, 4329, 4330, 4331, 4332, 4333
 4334, 4335, 4336, 4533, 4534, 4535, 4536, 4537, 4538, 4539, 4540, 4541, 4542, 4543, 4544, 4545
 4546, 4547, 4966, 4980, 4994, 5008, 5022, 5036, 5050, 5064, 5078, 5092, 5106, 5120, 5134, 5148
*Nset, nset=SET-7, instance=PART-1-1
 15447,
*Nset, nset=SET-8, instance=PART-1-1
     2,     4,     5,   149,   150,   151,   152,   153,   154,   155,   156,   157,   158,   159,   160,   161
   162,   163,   164,   165,   166,   167,   168,   169,   170,   171,   172,   173,   174,   175,   176,   177
   178,   319,   320,   321,   322,   323,   324,   325,   326,   327,   328,   329,   330,   331,   332,   333
   334,   335,   336,   337,   338,   339,   340,   341,   342,   343,   344,   345,   346,  7088,  7114,  7140
  7166,  7192,  7218,  7244,  7270,  7296,  7322,  7348,  7374,  7400,  7426,  7452,  7478,  7480,  7483,  7486
  7489,  7492,  7495,  7498,  7501,  7504,  7507,  7510,  7513,  7516,  7519,  7522, 12240, 12268, 12296, 12324
 12352, 12380, 12408, 12436, 12464, 12492, 12520, 12548, 12576, 12604, 12632, 12660, 12662, 12665, 12668, 12671
 12674, 12677, 12680, 12683, 12686, 12689, 12692, 12695, 12698
*Elset, elset=SET-8, instance=PART-1-1
  925,  938,  951,  964,  977,  990, 1003, 1016, 1029, 1042, 1055, 1068, 1081, 1094, 1107, 1120
 1121, 1122, 1123, 1124, 1125, 1126, 1127, 1128, 1129, 1130, 1131, 1132, 1133, 1134, 1135, 1316
 1317, 1318, 1319, 1320, 1321, 1322, 1323, 1324, 1325, 1326, 1327, 1328, 1329, 1330, 1331, 1793
 1807, 1821, 1835, 1849, 1863, 1877, 1891, 1905, 1919, 1933, 1947, 1961, 1975, 1989, 3495, 3509
 3523, 3537, 3551, 3565, 3579, 3593, 3607, 3621, 3635, 3649, 3663, 3677, 3691, 3705, 3706, 3707
 3708, 3709, 3710, 3711, 3712, 3713, 3714, 3715, 3716, 3717, 3718, 4533, 4534, 4535, 4536, 4537
 4538, 4539, 4540, 4541, 4542, 4543, 4544, 4545, 4546, 4547, 4966, 4980, 4994, 5008, 5022, 5036
 5050, 5064, 5078, 5092, 5106, 5120, 5134, 5148
*Nset, nset=_PickedSet14, internal, instance=PART-1-1
 15447,
*Elset, elset=_SURF-4_SNEG, internal, instance=PART-1-1, generate
    1,  5148,     1
*Elset, elset=_SURF-5_SNEG, internal, instance=PART-1-1, generate
    1,  5148,     1
*Surface, type=ELEMENT, name=SURF-4
_SURF-4_SNEG, SNEG
*Surface, type=ELEMENT, name=SURF-5
_SURF-5_SNEG, SNEG
*End Assembly
** 
** MATERIALS
** 
*Material, name=MATERIAL-1
*Damping, alpha=1000., beta=0.001
*Density
1500.,
*Elastic, type=ENGINEERING CONSTANTS, dependencies=1
*User Defined Field
*Depvar
1
* 
** INTERACTION PROPERTIES
** 
*Fluid Behavior, name=INTPROP-1
*Fluid Density
1000
*Fluid Expansion
 -0.001,
*Fluid Bulk Modulus
 2.5e+09,
*Surface Interaction, name=INTPROP-2
1.,
*Friction, slip tolerance=0.005
0.,
*Surface Behavior, pressure-overclosure=HARD
** 
** BOUNDARY CONDITIONS
** 
** Name: Temp-BC-1 Type: Temperature
*Boundary
SET-6, 11, 11
** 
** INTERACTIONS
** 
** Interaction: INTPROP-2-1
*Contact Pair, interaction=INTPROP-2, type=SURFACE TO SURFACE
SURF-5,
** Interaction: INT-1
*Fluid Cavity, name=INT-1, behavior=INTPROP-1, refnode=_PickedSet14, surface=SURF-4

** ----------------------------------------------------------------
** 
** STEP: Step-2
** 
*Step, name=Step-2, nlgeom=YES, inc=1000
*Dynamic,application=QUASI-STATIC,initial=NO
1e-03,0.4,1e-07
** 
** PREDEFINED FIELDS
** 
** Name: Field-1   Type: Temperature
*Temperature
SET-7, 300.
** Name: iField-2   Type: Temperature
*Temperature
SET-8, 300.
** 
** OUTPUT REQUESTS
** 
*Restart, write, frequency=0
** 
** FIELD OUTPUT: F-Output-3
** 
*Output, field, frequency=2
*Contact Output
CDISP, CSTRESS
** 
** FIELD OUTPUT: F-Output-1
** 
*Node Output
CF, NT, RF, U
** 
** FIELD OUTPUT: F-Output-2
** 
*Element Output, directions=YES
LE, P, PE, PEEQ, PEMAG, S, TEMP
** 
** HISTORY OUTPUT: H-Output-1
** 
*Output, history, variable=PRESELECT, frequency=2
*End Step
